REMARK  10 active torsions:
REMARK  status: ('A' for Active; 'I' for Inactive)
REMARK    1  A    between atoms: PG_1  and  O3B_8 
REMARK    2  A    between atoms: PB_5  and  O3B_8 
REMARK    3  A    between atoms: PB_5  and  O3A_12 
REMARK    4  A    between atoms: PA_9  and  O3A_12 
REMARK    5  A    between atoms: PA_9  and  O5'_13 
REMARK    6  A    between atoms: O5'_13  and  C5'_14 
REMARK    7  A    between atoms: C5'_14  and  C4'_15 
REMARK    8  A    between atoms: C3'_17  and  O3'_18 
REMARK    9  A    between atoms: C2'_20  and  O2'_21 
REMARK   10  A    between atoms: C1'_23  and  N9_24 
ROOT
HETATM    1  C4' ATP A   1       2.167 -18.701  56.712  1.00 38.54     0.186 C 
HETATM    2  O4' ATP A   1       2.963 -19.868  56.491  1.00 35.80    -0.326 OA
HETATM    3  C3' ATP A   1       1.267 -18.757  57.940  1.00 45.15     0.186 C 
HETATM    4  C2' ATP A   1       1.320 -20.234  58.307  1.00 39.54     0.224 C 
HETATM    5  C1' ATP A   1       2.598 -20.708  57.602  1.00 25.77     0.159 C 
ENDROOT
BRANCH   1   6
HETATM    6  C5' ATP A   1       2.624 -17.471  55.933  1.00 44.99     0.216 C 
BRANCH   6   7
HETATM    7  O5' ATP A   1       2.918 -17.883  54.594  1.00 59.23    -0.287 OA
BRANCH   7   8
HETATM    8  PA  ATP A   1       1.930 -17.465  53.389  1.00 48.88     0.417 P 
HETATM    9  O1A ATP A   1       2.538 -17.678  52.057  1.00 65.01    -0.624 OA
HETATM   10  O2A ATP A   1       1.650 -15.992  53.435  1.00 52.41    -0.624 OA
BRANCH   8  11
HETATM   11  O3A ATP A   1       0.626 -18.197  53.373  1.00 77.63    -0.180 OA
BRANCH  11  12
HETATM   12  PB  ATP A   1       0.275 -19.563  52.851  1.00 84.10     0.428 P 
HETATM   13  O1B ATP A   1      -0.656 -20.145  53.868  1.00 85.63    -0.624 OA
HETATM   14  O2B ATP A   1       1.519 -20.400  52.967  1.00 81.91    -0.624 OA
BRANCH  12  15
HETATM   15  O3B ATP A   1      -0.305 -19.507  51.354  1.00 90.38    -0.173 OA
BRANCH  15  16
HETATM   16  PG  ATP A   1      -1.463 -18.515  50.822  1.00 98.59     0.431 P 
HETATM   17  O1G ATP A   1      -1.209 -18.043  49.440  1.00102.11    -0.616 OA
HETATM   18  O2G ATP A   1      -1.530 -17.275  51.634  1.00105.26    -0.616 OA
HETATM   19  O3G ATP A   1      -2.851 -19.024  50.864  1.00 97.69    -0.616 OA
ENDBRANCH  15  16
ENDBRANCH  12  15
ENDBRANCH  11  12
ENDBRANCH   8  11
ENDBRANCH   7   8
ENDBRANCH   6   7
ENDBRANCH   1   6
BRANCH   3  20
HETATM   20  O3' ATP A   1      -0.030 -18.129  57.926  1.00 39.45    -0.390 OA
ATOM     21  H3' ATP A   1      -0.591 -18.164  58.692  1.00  0.00     0.210 HD
ENDBRANCH   3  20
BRANCH   5  22
HETATM   22  N9  ATP A   1       3.634 -21.568  58.230  1.00 17.06    -0.273 N 
HETATM   23  C8  ATP A   1       3.952 -22.907  58.031  1.00  7.03     0.192 A 
HETATM   24  N7  ATP A   1       5.016 -23.257  58.864  1.00  2.54    -0.346 N 
HETATM   25  C5  ATP A   1       5.275 -22.122  59.580  1.00 14.74     0.120 A 
ATOM     26  H7  ATP A   1       5.493 -24.157  58.925  1.00  0.00     0.167 HD
HETATM   27  C6  ATP A   1       6.254 -22.179  60.526  1.00 25.29     0.148 A 
HETATM   28  C4  ATP A   1       4.461 -21.121  59.223  1.00 19.88     0.146 A 
HETATM   29  N6  ATP A   1       7.051 -23.378  60.801  1.00 32.51    -0.080 NA
HETATM   30  N1  ATP A   1       6.427 -21.010  61.232  1.00 17.88    -0.339 N 
HETATM   31  C2  ATP A   1       5.589 -19.957  60.882  1.00 20.53     0.183 A 
ATOM     32  H1  ATP A   1       7.128 -20.922  61.968  1.00  0.00     0.167 HD
HETATM   33  N3  ATP A   1       4.604 -19.941  59.916  1.00 11.31    -0.336 N 
ATOM     34  H3  ATP A   1       4.028 -19.120  59.730  1.00  0.00     0.168 HD
ENDBRANCH   5  22
BRANCH   4  35
HETATM   35  O2' ATP A   1       0.062 -20.869  58.195  1.00 37.25    -0.385 OA
ATOM     36  H2' ATP A   1       0.095 -21.790  58.424  1.00  0.00     0.210 HD
ENDBRANCH   4  35
TORSDOF 10
